/*--------------------------------*- C++ -*----------------------------------*\
| =========                 |                                                 |
| \\      /  F ield         | OpenFOAM: The Open Source CFD Toolbox           |
|  \\    /   O peration     | Version:  v2212                                 |
|   \\  /    A nd           | Website:  www.openfoam.com                      |
|    \\/     M anipulation  |                                                 |
\*---------------------------------------------------------------------------*/
FoamFile
{
    version     2.0;
    format      ascii;
    class       dictionary;
    object      extrudeMeshDict;
}
// * * * * * * * * * * * * * * * * * * * * * * * * * * * * * * * * * * * * * //

 
constructFrom    patch;
/*
patch:   patch of sourceCase
mesh:    patch of sourceCase, retaining original mesh
surface: surface geometry file
*/

sourceCase       "$FOAM_CASE";   // uses current case; can be a separate case
sourcePatches    (back);
// surface       "geometry.obj"; // constructFrom surface

// constructFrom patch: name of exposed "original" patch
exposedPatchName front;

flipNormals      true;

extrudeModel     plane;
/*
linearNormal:    linear extrusion in point-normal direction
plane:           single-layer, point-normal extrusion with empty type (2D)
linearDirection: linear extrusion in specified direction
wedge:           single-layer, wedge extrusion with wedge type (axisymmetric)
sector:          sector extrusion about specified axis
linearRadial:    linear extrusion in radial direction
radial:          linear extrusion in radial direction with multiple radii
*/

thickness        0.01; // used by plane extrusion
 
nLayers          1;
expansionRatio   1.0;

// Merge front and back patches, typically for 360 deg wedge extrusion
mergeFaces       false;
mergeTol         0;
              


// ************************************************************************* //
